ieee_24_bus.raw
0, 100.0, 33, 1, 1, 60.0  / PSS/E-33 Format created by Assistant
IE, 24 BUS RELIABILITY TEST SYSTEM
   1, 'BUS-1       ', 138.0, 1, 1, 1, 1, 1.0000, 0.0000, 1.05, 0.95, 1.05, 0.95
   2, 'BUS-2       ', 138.0, 1, 1, 1, 1, 1.0000, 0.0000, 1.05, 0.95, 1.05, 0.95
   3, 'BUS-3       ', 138.0, 1, 1, 1, 1, 1.0000, 0.0000, 1.05, 0.95, 1.05, 0.95
   4, 'BUS-4       ', 138.0, 1, 1, 1, 1, 1.0000, 0.0000, 1.05, 0.95, 1.05, 0.95
   5, 'BUS-5       ', 138.0, 1, 1, 1, 1, 1.0000, 0.0000, 1.05, 0.95, 1.05, 0.95
   6, 'BUS-6       ', 138.0, 1, 1, 1, 1, 1.0000, 0.0000, 1.05, 0.95, 1.05, 0.95
   7, 'BUS-7       ', 138.0, 1, 1, 1, 1, 1.0000, 0.0000, 1.05, 0.95, 1.05, 0.95
   8, 'BUS-8       ', 138.0, 1, 1, 1, 1, 1.0000, 0.0000, 1.05, 0.95, 1.05, 0.95
   9, 'BUS-9       ', 138.0, 1, 1, 1, 1, 1.0000, 0.0000, 1.05, 0.95, 1.05, 0.95
  10, 'BUS-10      ', 138.0, 1, 1, 1, 1, 1.0000, 0.0000, 1.05, 0.95, 1.05, 0.95
  11, 'BUS-11      ', 230.0, 1, 1, 1, 1, 1.0000, 0.0000, 1.05, 0.95, 1.05, 0.95
  12, 'BUS-12      ', 230.0, 1, 1, 1, 1, 1.0000, 0.0000, 1.05, 0.95, 1.05, 0.95
  13, 'BUS-13      ', 230.0, 1, 1, 1, 1, 1.0000, 0.0000, 1.05, 0.95, 1.05, 0.95
  14, 'BUS-14      ', 230.0, 2, 1, 1, 1, 1.0000, 0.0000, 1.05, 0.95, 1.05, 0.95
  15, 'BUS-15      ', 230.0, 2, 1, 1, 1, 1.0000, 0.0000, 1.05, 0.95, 1.05, 0.95
  16, 'BUS-16      ', 230.0, 2, 1, 1, 1, 1.0000, 0.0000, 1.05, 0.95, 1.05, 0.95
  17, 'BUS-17      ', 230.0, 1, 1, 1, 1, 1.0000, 0.0000, 1.05, 0.95, 1.05, 0.95
  18, 'BUS-18      ', 230.0, 2, 1, 1, 1, 1.0000, 0.0000, 1.05, 0.95, 1.05, 0.95
  19, 'BUS-19      ', 230.0, 1, 1, 1, 1, 1.0000, 0.0000, 1.05, 0.95, 1.05, 0.95
  20, 'BUS-20      ', 230.0, 1, 1, 1, 1, 1.0000, 0.0000, 1.05, 0.95, 1.05, 0.95
  21, 'BUS-21      ', 230.0, 2, 1, 1, 1, 1.0000, 0.0000, 1.05, 0.95, 1.05, 0.95
  22, 'BUS-22      ', 230.0, 2, 1, 1, 1, 1.0000, 0.0000, 1.05, 0.95, 1.05, 0.95
  23, 'BUS-23      ', 230.0, 2, 1, 1, 1, 1.0000, 0.0000, 1.05, 0.95, 1.05, 0.95
  24, 'BUS-24      ', 230.0, 1, 1, 1, 1, 1.0000, 0.0000, 1.05, 0.95, 1.05, 0.95
0 / End of Bus Data
0 / End of Load Data (Loads are usually defined here but we will skip for now or assume auto-setup)
0 / End of Fixed Shunt Data
   1,'1 ', 20.0,   4.0,   80.0,  -60.0, 1.000, 0, 100.0, 0.0, 0.0, 0.0, 0.0, 1, 1, 100.0,   20.0,   16.0, 1, 1.0000
   1,'2 ', 20.0,   4.0,   80.0,  -60.0, 1.000, 0, 100.0, 0.0, 0.0, 0.0, 0.0, 1, 1, 100.0,   20.0,   16.0, 1, 1.0000
   1,'3 ', 76.0,  16.0,   80.0,  -60.0, 1.000, 0, 100.0, 0.0, 0.0, 0.0, 0.0, 1, 1, 100.0,   76.0,   15.2, 1, 1.0000
   1,'4 ', 76.0,  16.0,   80.0,  -60.0, 1.000, 0, 100.0, 0.0, 0.0, 0.0, 0.0, 1, 1, 100.0,   76.0,   15.2, 1, 1.0000
   2,'1 ', 20.0,   4.0,   80.0,  -60.0, 1.000, 0, 100.0, 0.0, 0.0, 0.0, 0.0, 1, 1, 100.0,   20.0,   16.0, 1, 1.0000
   2,'2 ', 20.0,   4.0,   80.0,  -60.0, 1.000, 0, 100.0, 0.0, 0.0, 0.0, 0.0, 1, 1, 100.0,   20.0,   16.0, 1, 1.0000
   2,'3 ', 76.0,  16.0,   80.0,  -60.0, 1.000, 0, 100.0, 0.0, 0.0, 0.0, 0.0, 1, 1, 100.0,   76.0,   15.2, 1, 1.0000
   2,'4 ', 76.0,  16.0,   80.0,  -60.0, 1.000, 0, 100.0, 0.0, 0.0, 0.0, 0.0, 1, 1, 100.0,   76.0,   15.2, 1, 1.0000
   7,'1 ', 100.0, 20.0,  160.0, -100.0, 1.000, 0, 100.0, 0.0, 0.0, 0.0, 0.0, 1, 1, 100.0,  100.0,   30.0, 1, 1.0000
   7,'2 ', 100.0, 20.0,  160.0, -100.0, 1.000, 0, 100.0, 0.0, 0.0, 0.0, 0.0, 1, 1, 100.0,  100.0,   30.0, 1, 1.0000
   7,'3 ', 100.0, 20.0,  160.0, -100.0, 1.000, 0, 100.0, 0.0, 0.0, 0.0, 0.0, 1, 1, 100.0,  100.0,   30.0, 1, 1.0000
  13,'1 ', 197.0, 40.0,  200.0, -100.0, 1.000, 0, 100.0, 0.0, 0.0, 0.0, 0.0, 1, 1, 100.0,  197.0,   78.8, 1, 1.0000
  13,'2 ', 197.0, 40.0,  200.0, -100.0, 1.000, 0, 100.0, 0.0, 0.0, 0.0, 0.0, 1, 1, 100.0,  197.0,   78.8, 1, 1.0000
  13,'3 ', 197.0, 40.0,  200.0, -100.0, 1.000, 0, 100.0, 0.0, 0.0, 0.0, 0.0, 1, 1, 100.0,  197.0,   78.8, 1, 1.0000
  14,'1 ',   0.0, 10.0,  200.0, -100.0, 1.000, 0, 100.0, 0.0, 0.0, 0.0, 0.0, 1, 1, 100.0,    0.0,    0.0, 1, 1.0000
  15,'1 ',  12.0,  2.0,   60.0,  -40.0, 1.000, 0, 100.0, 0.0, 0.0, 0.0, 0.0, 1, 1, 100.0,   12.0,    2.4, 1, 1.0000
  15,'2 ',  12.0,  2.0,   60.0,  -40.0, 1.000, 0, 100.0, 0.0, 0.0, 0.0, 0.0, 1, 1, 100.0,   12.0,    2.4, 1, 1.0000
  15,'3 ',  12.0,  2.0,   60.0,  -40.0, 1.000, 0, 100.0, 0.0, 0.0, 0.0, 0.0, 1, 1, 100.0,   12.0,    2.4, 1, 1.0000
  15,'4 ',  12.0,  2.0,   60.0,  -40.0, 1.000, 0, 100.0, 0.0, 0.0, 0.0, 0.0, 1, 1, 100.0,   12.0,    2.4, 1, 1.0000
  15,'5 ',  12.0,  2.0,   60.0,  -40.0, 1.000, 0, 100.0, 0.0, 0.0, 0.0, 0.0, 1, 1, 100.0,   12.0,    2.4, 1, 1.0000
  15,'6 ', 155.0, 30.0,  160.0, -100.0, 1.000, 0, 100.0, 0.0, 0.0, 0.0, 0.0, 1, 1, 100.0,  155.0,    0.0, 1, 1.0000
  16,'1 ', 155.0, 30.0,  160.0, -100.0, 1.000, 0, 100.0, 0.0, 0.0, 0.0, 0.0, 1, 1, 100.0,  155.0,    0.0, 1, 1.0000
  18,'1 ', 400.0,100.0,  400.0,  -50.0, 1.000, 0, 100.0, 0.0, 0.0, 0.0, 0.0, 1, 1, 100.0,  400.0,   80.0, 1, 1.0000
  21,'1 ', 400.0,100.0,  400.0,  -50.0, 1.000, 0, 100.0, 0.0, 0.0, 0.0, 0.0, 1, 1, 100.0,  400.0,   80.0, 1, 1.0000
  22,'1 ',  50.0, 10.0,  300.0,  -60.0, 1.000, 0, 100.0, 0.0, 0.0, 0.0, 0.0, 1, 1, 100.0,   50.0,   10.0, 1, 1.0000
  22,'2 ',  50.0, 10.0,  300.0,  -60.0, 1.000, 0, 100.0, 0.0, 0.0, 0.0, 0.0, 1, 1, 100.0,   50.0,   10.0, 1, 1.0000
  22,'3 ',  50.0, 10.0,  300.0,  -60.0, 1.000, 0, 100.0, 0.0, 0.0, 0.0, 0.0, 1, 1, 100.0,   50.0,   10.0, 1, 1.0000
  22,'4 ',  50.0, 10.0,  300.0,  -60.0, 1.000, 0, 100.0, 0.0, 0.0, 0.0, 0.0, 1, 1, 100.0,   50.0,   10.0, 1, 1.0000
  22,'5 ',  50.0, 10.0,  300.0,  -60.0, 1.000, 0, 100.0, 0.0, 0.0, 0.0, 0.0, 1, 1, 100.0,   50.0,   10.0, 1, 1.0000
  22,'6 ',  50.0, 10.0,  300.0,  -60.0, 1.000, 0, 100.0, 0.0, 0.0, 0.0, 0.0, 1, 1, 100.0,   50.0,   10.0, 1, 1.0000
  23,'1 ', 155.0, 30.0,  160.0, -100.0, 1.000, 0, 100.0, 0.0, 0.0, 0.0, 0.0, 1, 1, 100.0,  155.0,    0.0, 1, 1.0000
  23,'2 ', 155.0, 30.0,  160.0, -100.0, 1.000, 0, 100.0, 0.0, 0.0, 0.0, 0.0, 1, 1, 100.0,  155.0,    0.0, 1, 1.0000
  23,'3 ', 350.0, 70.0,  350.0, -100.0, 1.000, 0, 100.0, 0.0, 0.0, 0.0, 0.0, 1, 1, 100.0,  350.0,   70.0, 1, 1.0000
0 / End of Generator Data
   1,   2, 1,  0.00260,  0.01390,  0.46110,  175.0,  175.0,  175.0, 0.00000, 0.00000, 0.00000, 0.00000, 1, 1
   1,   3, 1,  0.05460,  0.21120,  0.05720,  175.0,  175.0,  175.0, 0.00000, 0.00000, 0.00000, 0.00000, 1, 1
   1,   5, 1,  0.02180,  0.08450,  0.02290,  175.0,  175.0,  175.0, 0.00000, 0.00000, 0.00000, 0.00000, 1, 1
   2,   4, 1,  0.03280,  0.12670,  0.03430,  175.0,  175.0,  175.0, 0.00000, 0.00000, 0.00000, 0.00000, 1, 1
   2,   6, 1,  0.04970,  0.19200,  0.05200,  175.0,  175.0,  175.0, 0.00000, 0.00000, 0.00000, 0.00000, 1, 1
   3,   9, 1,  0.03080,  0.11900,  0.03220,  175.0,  175.0,  175.0, 0.00000, 0.00000, 0.00000, 0.00000, 1, 1
   3,  24, 1,  0.00230,  0.08390,  0.00000,  400.0,  400.0,  400.0, 0.00000, 0.00000, 0.00000, 0.00000, 1, 1
   4,   9, 1,  0.02680,  0.10370,  0.02810,  175.0,  175.0,  175.0, 0.00000, 0.00000, 0.00000, 0.00000, 1, 1
   5,  10, 1,  0.02280,  0.08830,  0.02390,  175.0,  175.0,  175.0, 0.00000, 0.00000, 0.00000, 0.00000, 1, 1
   6,  10, 1,  0.01390,  0.06050,  2.45900,  175.0,  175.0,  175.0, 0.00000, 0.00000, 0.00000, 0.00000, 1, 1
   7,  8, 1,  0.01590,  0.06140,  0.01660,  175.0,  175.0,  175.0, 0.00000, 0.00000, 0.00000, 0.00000, 1, 1
   8,   9, 1,  0.04270,  0.16510,  0.04470,  175.0,  175.0,  175.0, 0.00000, 0.00000, 0.00000, 0.00000, 1, 1
   8,  10, 1,  0.04270,  0.16510,  0.04470,  175.0,  175.0,  175.0, 0.00000, 0.00000, 0.00000, 0.00000, 1, 1
   9,  11, 1,  0.00230,  0.08390,  0.00000,  400.0,  400.0,  400.0, 0.00000, 0.00000, 0.00000, 0.00000, 1, 1
   9,  12, 1,  0.00230,  0.08390,  0.00000,  400.0,  400.0,  400.0, 0.00000, 0.00000, 0.00000, 0.00000, 1, 1
  10,  11, 1,  0.00230,  0.08390,  0.00000,  400.0,  400.0,  400.0, 0.00000, 0.00000, 0.00000, 0.00000, 1, 1
  10,  12, 1,  0.00230,  0.08390,  0.00000,  400.0,  400.0,  400.0, 0.00000, 0.00000, 0.00000, 0.00000, 1, 1
  11,  13, 1,  0.00610,  0.04760,  0.09990,  500.0,  500.0,  500.0, 0.00000, 0.00000, 0.00000, 0.00000, 1, 1
  11,  14, 1,  0.00540,  0.04180,  0.08790,  500.0,  500.0,  500.0, 0.00000, 0.00000, 0.00000, 0.00000, 1, 1
  12,  13, 1,  0.00610,  0.04760,  0.09990,  500.0,  500.0,  500.0, 0.00000, 0.00000, 0.00000, 0.00000, 1, 1
  12,  23, 1,  0.01240,  0.09660,  0.20300,  500.0,  500.0,  500.0, 0.00000, 0.00000, 0.00000, 0.00000, 1, 1
  13,  23, 1,  0.01110,  0.08650,  0.18180,  500.0,  500.0,  500.0, 0.00000, 0.00000, 0.00000, 0.00000, 1, 1
  14,  16, 1,  0.00500,  0.03890,  0.08180,  500.0,  500.0,  500.0, 0.00000, 0.00000, 0.00000, 0.00000, 1, 1
  15,  21, 1,  0.00630,  0.04900,  0.10300,  500.0,  500.0,  500.0, 0.00000, 0.00000, 0.00000, 0.00000, 1, 1
  15,  21, 2,  0.00630,  0.04900,  0.10300,  500.0,  500.0,  500.0, 0.00000, 0.00000, 0.00000, 0.00000, 1, 1
  15,  24, 1,  0.00670,  0.05190,  0.10910,  500.0,  500.0,  500.0, 0.00000, 0.00000, 0.00000, 0.00000, 1, 1
  16,  17, 1,  0.00330,  0.02590,  0.05450,  500.0,  500.0,  500.0, 0.00000, 0.00000, 0.00000, 0.00000, 1, 1
  16,  19, 1,  0.00300,  0.02310,  0.04850,  500.0,  500.0,  500.0, 0.00000, 0.00000, 0.00000, 0.00000, 1, 1
  17,  18, 1,  0.00180,  0.01440,  0.03030,  500.0,  500.0,  500.0, 0.00000, 0.00000, 0.00000, 0.00000, 1, 1
  17,  22, 1,  0.01350,  0.10530,  0.22120,  500.0,  500.0,  500.0, 0.00000, 0.00000, 0.00000, 0.00000, 1, 1
  18,  21, 1,  0.00330,  0.02590,  0.05450,  500.0,  500.0,  500.0, 0.00000, 0.00000, 0.00000, 0.00000, 1, 1
  18,  21, 2,  0.00330,  0.02590,  0.05450,  500.0,  500.0,  500.0, 0.00000, 0.00000, 0.00000, 0.00000, 1, 1
  19,  20, 1,  0.00510,  0.03960,  0.08330,  500.0,  500.0,  500.0, 0.00000, 0.00000, 0.00000, 0.00000, 1, 1
  19,  20, 2,  0.00510,  0.03960,  0.08330,  500.0,  500.0,  500.0, 0.00000, 0.00000, 0.00000, 0.00000, 1, 1
  20,  23, 1,  0.00280,  0.02160,  0.04550,  500.0,  500.0,  500.0, 0.00000, 0.00000, 0.00000, 0.00000, 1, 1
  20,  23, 2,  0.00280,  0.02160,  0.04550,  500.0,  500.0,  500.0, 0.00000, 0.00000, 0.00000, 0.00000, 1, 1
  21,  22, 1,  0.00870,  0.06780,  0.14240,  500.0,  500.0,  500.0, 0.00000, 0.00000, 0.00000, 0.00000, 1, 1
0 / End of Branch Data
0 / End of Transformer Data
0 / End of Area Data
0 / End of Two-Terminal DC Data
0 / End of VSC DC Line Data
0 / End of Switched Shunt Data
0 / End of Impedance Correction Data
0 / End of Multi-Terminal DC Data
0 / End of Multi-Section Line Data
0 / End of Zone Data
0 / End of Inter-Area Transfer Data
0 / End of Owner Data
0 / End of FACTS Device Data
Q
